Version 4
SHEET 1 9176 2548
WIRE 224 128 224 112
WIRE 320 128 224 128
WIRE 432 128 432 112
WIRE 432 128 400 128
WIRE 544 128 432 128
WIRE 224 144 224 128
WIRE 624 144 608 144
WIRE 720 144 704 144
WIRE 544 160 528 160
WIRE 528 224 528 160
WIRE 720 224 720 144
WIRE 720 224 528 224
WIRE 2064 416 272 416
WIRE 2368 416 2144 416
WIRE 7024 432 5232 432
WIRE -160 528 -272 528
WIRE 48 528 -96 528
WIRE 176 528 128 528
WIRE 272 528 272 416
WIRE 272 528 256 528
WIRE 304 528 272 528
WIRE 432 528 384 528
WIRE 544 528 512 528
WIRE 608 528 544 528
WIRE 2928 528 2896 528
WIRE 3088 528 3008 528
WIRE 704 544 672 544
WIRE 2064 544 704 544
WIRE 2368 544 2368 416
WIRE 2368 544 2320 544
WIRE 4800 544 4688 544
WIRE 5136 544 4864 544
WIRE 5232 544 5232 432
WIRE 5232 544 5216 544
WIRE 5264 544 5232 544
WIRE 5392 544 5344 544
WIRE 5504 544 5472 544
WIRE 5568 544 5504 544
WIRE 7888 544 7856 544
WIRE 8048 544 7968 544
WIRE -272 560 -272 528
WIRE 5664 560 5632 560
WIRE 7024 560 5664 560
WIRE 7328 560 7328 432
WIRE 7328 560 7280 560
WIRE 2560 576 2528 576
WIRE 2752 576 2640 576
WIRE 4688 576 4688 544
WIRE 3264 592 3232 592
WIRE 3392 592 3344 592
WIRE 3536 592 3472 592
WIRE 7520 592 7488 592
WIRE 7712 592 7600 592
WIRE 2896 608 2896 528
WIRE 2928 608 2896 608
WIRE 3088 608 3088 528
WIRE 3088 608 3008 608
WIRE 8224 608 8192 608
WIRE 8352 608 8304 608
WIRE 8496 608 8432 608
WIRE 7856 624 7856 544
WIRE 7888 624 7856 624
WIRE 8048 624 8048 544
WIRE 8048 624 7968 624
WIRE 704 656 704 544
WIRE 752 656 704 656
WIRE 864 656 832 656
WIRE 896 656 864 656
WIRE 1040 656 976 656
WIRE 1136 672 1104 672
WIRE 1264 672 1216 672
WIRE 1296 672 1264 672
WIRE 1424 672 1376 672
WIRE 2064 672 1424 672
WIRE 2368 672 2368 544
WIRE 2368 672 2320 672
WIRE 2416 672 2368 672
WIRE 2528 672 2528 576
WIRE 2528 672 2496 672
WIRE 2560 672 2528 672
WIRE 5664 672 5664 560
WIRE 5712 672 5664 672
WIRE 5824 672 5792 672
WIRE 5856 672 5824 672
WIRE 6000 672 5936 672
WIRE 864 688 864 656
WIRE 2656 688 2624 688
WIRE 2752 688 2752 576
WIRE 2752 688 2736 688
WIRE 2784 688 2752 688
WIRE 2896 688 2896 608
WIRE 2896 688 2864 688
WIRE 2928 688 2896 688
WIRE 3088 688 3088 608
WIRE 3088 688 3008 688
WIRE 3120 688 3088 688
WIRE 3232 688 3232 592
WIRE 3232 688 3200 688
WIRE 3264 688 3232 688
WIRE 6096 688 6064 688
WIRE 6224 688 6176 688
WIRE 6256 688 6224 688
WIRE 6384 688 6336 688
WIRE 7024 688 6384 688
WIRE 7328 688 7328 560
WIRE 7328 688 7280 688
WIRE 7376 688 7328 688
WIRE 7488 688 7488 592
WIRE 7488 688 7456 688
WIRE 7520 688 7488 688
WIRE 2560 704 2528 704
WIRE 3360 704 3328 704
WIRE 3536 704 3536 592
WIRE 3536 704 3440 704
WIRE 3584 704 3536 704
WIRE 3760 704 3664 704
WIRE 3888 704 3840 704
WIRE 3952 704 3888 704
WIRE 4000 704 3952 704
WIRE 5824 704 5824 672
WIRE 7712 704 7712 592
WIRE 7712 704 7584 704
WIRE 7744 704 7712 704
WIRE 7856 704 7856 624
WIRE 7856 704 7824 704
WIRE 7888 704 7856 704
WIRE 8048 704 8048 624
WIRE 8048 704 7968 704
WIRE 8080 704 8048 704
WIRE 8192 704 8192 608
WIRE 8192 704 8160 704
WIRE 8224 704 8192 704
WIRE 3264 720 3232 720
WIRE 7520 720 7488 720
WIRE 8496 720 8496 608
WIRE 8496 720 8288 720
WIRE 8544 720 8496 720
WIRE 8720 720 8624 720
WIRE 8848 720 8800 720
WIRE 8912 720 8848 720
WIRE 8960 720 8912 720
WIRE 8224 736 8192 736
WIRE 3888 752 3888 704
WIRE 2896 768 2896 688
WIRE 2928 768 2896 768
WIRE 3088 768 3088 688
WIRE 3088 768 3008 768
WIRE 8848 768 8848 720
WIRE 864 784 864 768
WIRE 976 784 976 656
WIRE 992 784 976 784
WIRE 1088 784 1072 784
WIRE 1168 784 1152 784
WIRE 1264 784 1264 672
WIRE 1264 784 1248 784
WIRE 1472 784 1264 784
WIRE 1616 784 1552 784
WIRE 1680 784 1616 784
WIRE 7856 784 7856 704
WIRE 7888 784 7856 784
WIRE 8048 784 8048 704
WIRE 8048 784 7968 784
WIRE 1760 800 1744 800
WIRE 1872 800 1840 800
WIRE 1968 800 1952 800
WIRE 2064 800 1968 800
WIRE 2368 800 2368 672
WIRE 2368 800 2320 800
WIRE 3952 800 3952 704
WIRE 3984 800 3952 800
WIRE 4064 800 4064 752
WIRE 4064 800 4048 800
WIRE 4144 800 4064 800
WIRE 5936 800 5936 672
WIRE 6048 800 5936 800
WIRE 6224 800 6224 688
WIRE 6224 800 6112 800
WIRE 6432 800 6224 800
WIRE 6576 800 6512 800
WIRE 6640 800 6576 800
WIRE 6720 816 6704 816
WIRE 6928 816 6800 816
WIRE 7024 816 6928 816
WIRE 7200 816 7104 816
WIRE 7328 816 7328 688
WIRE 7328 816 7280 816
WIRE 8912 816 8912 720
WIRE 8944 816 8912 816
WIRE 9024 816 9024 768
WIRE 9024 816 9008 816
WIRE 9104 816 9024 816
WIRE 2528 848 2528 704
WIRE 2672 848 2528 848
WIRE 3232 848 3232 720
WIRE 3232 848 2672 848
WIRE 7488 864 7488 720
WIRE 7632 864 7488 864
WIRE 8192 864 8192 736
WIRE 8192 864 7632 864
WIRE 544 912 544 528
WIRE 592 912 544 912
WIRE 864 912 864 864
WIRE 864 912 672 912
WIRE 1616 912 1616 784
WIRE 1632 912 1616 912
WIRE 1728 912 1712 912
WIRE 1872 912 1792 912
WIRE 1968 912 1968 800
WIRE 1968 912 1952 912
WIRE 5504 928 5504 544
WIRE 5824 928 5824 784
WIRE 5824 928 5504 928
WIRE 6576 928 6576 800
WIRE 6688 928 6576 928
WIRE 6928 928 6928 816
WIRE 6928 928 6752 928
WIRE 7632 944 7632 864
WIRE 864 1040 864 912
WIRE 1648 1040 864 1040
WIRE 1968 1040 1968 912
WIRE 1968 1040 1728 1040
WIRE 5824 1056 5824 928
WIRE 6608 1056 5824 1056
WIRE 6928 1056 6928 928
WIRE 6928 1056 6688 1056
WIRE 1104 1104 1056 1104
WIRE 1136 1104 1104 1104
WIRE 1296 1104 1216 1104
WIRE 1424 1104 1424 672
WIRE 1424 1104 1376 1104
WIRE 544 1120 544 912
WIRE 576 1120 544 1120
WIRE 720 1120 656 1120
WIRE 752 1120 720 1120
WIRE 880 1120 832 1120
WIRE 992 1120 960 1120
WIRE 6064 1120 6016 1120
WIRE 6096 1120 6064 1120
WIRE 6256 1120 6176 1120
WIRE 6384 1120 6384 688
WIRE 6384 1120 6336 1120
WIRE 5504 1136 5504 928
WIRE 5536 1136 5504 1136
WIRE 5680 1136 5616 1136
WIRE 5712 1136 5680 1136
WIRE 5952 1136 5792 1136
WIRE 720 1248 720 1120
WIRE 928 1248 720 1248
WIRE 1104 1248 1104 1104
WIRE 1104 1248 1008 1248
WIRE 5680 1264 5680 1136
WIRE 5888 1264 5680 1264
WIRE 6064 1264 6064 1120
WIRE 6064 1264 5968 1264
WIRE 1888 1488 160 1488
WIRE 2192 1488 1968 1488
WIRE 6848 1552 5056 1552
WIRE -96 1600 -208 1600
WIRE 64 1600 -32 1600
WIRE 160 1600 160 1488
WIRE 160 1600 144 1600
WIRE 192 1600 160 1600
WIRE 320 1600 272 1600
WIRE 432 1600 400 1600
WIRE 496 1600 432 1600
WIRE 2752 1600 2720 1600
WIRE 2912 1600 2832 1600
WIRE 592 1616 560 1616
WIRE 1888 1616 592 1616
WIRE 2192 1616 2192 1488
WIRE 2192 1616 2144 1616
WIRE -208 1632 -208 1600
WIRE 2384 1648 2352 1648
WIRE 2576 1648 2464 1648
WIRE 3088 1664 3056 1664
WIRE 3280 1664 3168 1664
WIRE 4624 1664 4512 1664
WIRE 5056 1664 5056 1552
WIRE 5056 1664 4688 1664
WIRE 5088 1664 5056 1664
WIRE 5328 1664 5168 1664
WIRE 5392 1664 5328 1664
WIRE 7712 1664 7680 1664
WIRE 7872 1664 7792 1664
WIRE 2720 1680 2720 1600
WIRE 2752 1680 2720 1680
WIRE 2912 1680 2912 1600
WIRE 2912 1680 2832 1680
WIRE 5488 1680 5456 1680
WIRE 6848 1680 5488 1680
WIRE 7152 1680 7152 1552
WIRE 7152 1680 7104 1680
WIRE 4512 1696 4512 1664
WIRE 7344 1712 7312 1712
WIRE 7536 1712 7424 1712
WIRE 592 1728 592 1616
WIRE 640 1728 592 1728
WIRE 752 1728 720 1728
WIRE 784 1728 752 1728
WIRE 928 1728 864 1728
WIRE 8048 1728 8016 1728
WIRE 8320 1728 8128 1728
WIRE 1152 1744 992 1744
WIRE 1184 1744 1152 1744
WIRE 1312 1744 1264 1744
WIRE 1888 1744 1312 1744
WIRE 2192 1744 2192 1616
WIRE 2192 1744 2144 1744
WIRE 2240 1744 2192 1744
WIRE 2352 1744 2352 1648
WIRE 2352 1744 2320 1744
WIRE 2384 1744 2352 1744
WIRE 7680 1744 7680 1664
WIRE 7712 1744 7680 1744
WIRE 7872 1744 7872 1664
WIRE 7872 1744 7792 1744
WIRE 2576 1760 2576 1648
WIRE 2576 1760 2448 1760
WIRE 2608 1760 2576 1760
WIRE 2720 1760 2720 1680
WIRE 2720 1760 2688 1760
WIRE 2752 1760 2720 1760
WIRE 2912 1760 2912 1680
WIRE 2912 1760 2832 1760
WIRE 2944 1760 2912 1760
WIRE 3056 1760 3056 1664
WIRE 3056 1760 3024 1760
WIRE 3088 1760 3056 1760
WIRE 752 1776 752 1728
WIRE 3280 1776 3280 1664
WIRE 3280 1776 3152 1776
WIRE 3504 1776 3280 1776
WIRE 3632 1776 3584 1776
WIRE 3744 1776 3632 1776
WIRE 5488 1792 5488 1680
WIRE 5648 1792 5488 1792
WIRE 5680 1792 5648 1792
WIRE 5824 1792 5760 1792
WIRE 6048 1808 5888 1808
WIRE 6208 1808 6048 1808
WIRE 6848 1808 6208 1808
WIRE 7152 1808 7152 1680
WIRE 7152 1808 7104 1808
WIRE 7312 1808 7312 1712
WIRE 7312 1808 7152 1808
WIRE 7344 1808 7312 1808
WIRE 3632 1824 3632 1776
WIRE 5648 1824 5648 1792
WIRE 7536 1824 7536 1712
WIRE 7536 1824 7408 1824
WIRE 7680 1824 7680 1744
WIRE 7680 1824 7536 1824
WIRE 7712 1824 7680 1824
WIRE 7872 1824 7872 1744
WIRE 7872 1824 7792 1824
WIRE 8016 1824 8016 1728
WIRE 8016 1824 7872 1824
WIRE 8048 1824 8016 1824
WIRE 2720 1840 2720 1760
WIRE 2752 1840 2720 1840
WIRE 2912 1840 2912 1760
WIRE 2912 1840 2832 1840
WIRE 7344 1840 7312 1840
WIRE 8320 1840 8320 1728
WIRE 8320 1840 8112 1840
WIRE 8544 1840 8320 1840
WIRE 8672 1840 8624 1840
WIRE 8784 1840 8672 1840
WIRE 864 1856 864 1728
WIRE 976 1856 864 1856
WIRE 1152 1856 1152 1744
WIRE 1152 1856 1040 1856
WIRE 1360 1856 1152 1856
WIRE 1504 1856 1440 1856
WIRE 1568 1856 1504 1856
WIRE 8048 1856 8016 1856
WIRE 1792 1872 1632 1872
WIRE 1888 1872 1792 1872
WIRE 2192 1872 2192 1744
WIRE 2192 1872 2144 1872
WIRE 3808 1872 3808 1824
WIRE 3888 1872 3808 1872
WIRE 432 1888 432 1600
WIRE 752 1888 752 1856
WIRE 752 1888 432 1888
WIRE 8672 1888 8672 1840
WIRE 7680 1904 7680 1824
WIRE 7712 1904 7680 1904
WIRE 7872 1904 7872 1824
WIRE 7872 1904 7792 1904
WIRE 5760 1920 5760 1792
WIRE 5872 1920 5760 1920
WIRE 6048 1920 6048 1808
WIRE 6048 1920 5936 1920
WIRE 6256 1920 6048 1920
WIRE 6400 1920 6336 1920
WIRE 6464 1920 6400 1920
WIRE 6752 1936 6528 1936
WIRE 7024 1936 6752 1936
WIRE 7152 1936 7152 1808
WIRE 7152 1936 7104 1936
WIRE 8848 1936 8848 1888
WIRE 8848 1936 8832 1936
WIRE 8928 1936 8848 1936
WIRE 1504 1984 1504 1856
WIRE 1616 1984 1504 1984
WIRE 1792 1984 1792 1872
WIRE 1792 1984 1680 1984
WIRE 7312 1984 7312 1840
WIRE 7456 1984 7312 1984
WIRE 8016 1984 8016 1856
WIRE 8016 1984 7456 1984
WIRE 5328 2048 5328 1664
WIRE 5648 2048 5648 1904
WIRE 5648 2048 5328 2048
WIRE 6400 2048 6400 1920
WIRE 6512 2048 6400 2048
WIRE 6752 2048 6752 1936
WIRE 6752 2048 6576 2048
WIRE 7456 2064 7456 1984
WIRE 752 2112 752 1888
WIRE 1536 2112 752 2112
WIRE 1792 2112 1792 1984
WIRE 1792 2112 1616 2112
WIRE 992 2176 944 2176
WIRE 1024 2176 992 2176
WIRE 1312 2176 1312 1744
WIRE 1312 2176 1104 2176
WIRE 5648 2176 5648 2048
WIRE 6432 2176 5648 2176
WIRE 6752 2176 6752 2048
WIRE 6752 2176 6512 2176
WIRE 432 2192 432 1888
WIRE 592 2192 432 2192
WIRE 736 2192 672 2192
WIRE 880 2192 736 2192
WIRE 5888 2240 5840 2240
WIRE 5920 2240 5888 2240
WIRE 6208 2240 6208 1808
WIRE 6208 2240 6000 2240
WIRE 5328 2256 5328 2048
WIRE 5360 2256 5328 2256
WIRE 5504 2256 5440 2256
WIRE 5776 2256 5504 2256
WIRE 736 2320 736 2192
WIRE 816 2320 736 2320
WIRE 992 2320 992 2176
WIRE 992 2320 896 2320
WIRE 5504 2384 5504 2256
WIRE 5712 2384 5504 2384
WIRE 5888 2384 5888 2240
WIRE 5888 2384 5792 2384
FLAG -16 112 0
FLAG -16 32 V5
FLAG 80 112 0
FLAG 80 32 V9
FLAG 224 32 V5
FLAG 224 224 0
FLAG 432 32 V5
FLAG 576 112 0
FLAG 576 176 V9
FLAG 528 224 Vref
FLAG -272 640 0
FLAG 640 576 0
FLAG 640 512 V9
FLAG 608 560 Vref
FLAG 1072 704 0
FLAG 1072 640 V9
FLAG 1040 688 Vref
FLAG 1024 1152 0
FLAG 1024 1088 V9
FLAG 1056 1136 Vref
FLAG 1712 832 0
FLAG 1712 768 V9
FLAG 1680 816 Vref
FLAG 2592 720 0
FLAG 2592 656 V9
FLAG 2672 928 Vref
FLAG 3296 736 0
FLAG 3296 672 V9
FLAG 3712 816 0
FLAG 3888 816 0
FLAG 4064 880 0
FLAG 4064 656 V9
FLAG -208 1712 0
FLAG 528 1648 0
FLAG 528 1584 V9
FLAG 496 1632 Vref
FLAG 960 1776 0
FLAG 960 1712 V9
FLAG 928 1760 Vref
FLAG 912 2224 0
FLAG 912 2160 V9
FLAG 944 2208 Vref
FLAG 1600 1904 0
FLAG 1600 1840 V9
FLAG 1568 1888 Vref
FLAG 2416 1792 0
FLAG 2416 1728 V9
FLAG 2384 1776 Vref
FLAG 3120 1808 0
FLAG 3120 1744 V9
FLAG 3632 1888 0
FLAG 3808 1952 0
FLAG 3808 1728 V9
FLAG 3088 1792 Vref
FLAG 4688 656 0
FLAG 5600 592 0
FLAG 5600 528 V9
FLAG 5568 576 Vref
FLAG 6032 720 0
FLAG 6032 656 V9
FLAG 6000 704 Vref
FLAG 5984 1168 0
FLAG 5984 1104 V9
FLAG 6016 1152 Vref
FLAG 6672 848 0
FLAG 6672 784 V9
FLAG 6640 832 Vref
FLAG 7552 736 0
FLAG 7552 672 V9
FLAG 7632 944 Vref
FLAG 8256 752 0
FLAG 8256 688 V9
FLAG 8672 832 0
FLAG 8848 832 0
FLAG 9024 896 0
FLAG 9024 672 V9
FLAG 4512 1776 0
FLAG 5424 1712 0
FLAG 5424 1648 V9
FLAG 5392 1696 Vref
FLAG 5856 1840 0
FLAG 5856 1776 V9
FLAG 5824 1824 Vref
FLAG 5808 2288 0
FLAG 5808 2224 V9
FLAG 5840 2272 Vref
FLAG 6496 1968 0
FLAG 6496 1904 V9
FLAG 6464 1952 Vref
FLAG 7376 1856 0
FLAG 7376 1792 V9
FLAG 7456 2064 Vref
FLAG 8080 1872 0
FLAG 8080 1808 V9
FLAG 8672 1952 0
FLAG 8848 2016 0
FLAG 8848 1792 V9
SYMBOL voltage -16 16 R0
WINDOW 123 0 0 Left 0
WINDOW 39 0 0 Left 0
SYMATTR InstName V1
SYMATTR Value 5
SYMBOL voltage 80 16 R0
WINDOW 123 0 0 Left 0
WINDOW 39 0 0 Left 0
SYMATTR InstName V2
SYMATTR Value 9
SYMBOL res 208 16 R0
SYMATTR InstName R1
SYMATTR Value 90.708k
SYMBOL res 208 128 R0
SYMATTR InstName R2
SYMATTR Value 90.358k
SYMBOL res 416 112 R90
WINDOW 0 0 56 VBottom 2
WINDOW 3 32 56 VTop 2
SYMATTR InstName R3
SYMATTR Value 36.138k
SYMBOL res 416 16 R0
SYMATTR InstName R4
SYMATTR Value 8.75k
SYMBOL Opamps\\UniversalOpamp2 576 144 M180
SYMATTR InstName U1
SYMBOL res 720 128 R90
WINDOW 0 0 56 VBottom 2
WINDOW 3 32 56 VTop 2
SYMATTR InstName R5
SYMATTR Value 152.9
SYMBOL voltage -272 544 R0
WINDOW 123 24 124 Left 2
WINDOW 39 0 0 Left 0
SYMATTR Value2 AC 1
SYMATTR InstName Vin
SYMATTR Value SINE(0 2 1k)
SYMBOL res 272 512 R90
WINDOW 0 0 56 VBottom 2
WINDOW 3 32 56 VTop 2
SYMATTR InstName R6
SYMATTR Value 6199.6
SYMBOL res 400 512 R90
WINDOW 0 0 56 VBottom 2
WINDOW 3 32 56 VTop 2
SYMATTR InstName R7
SYMATTR Value 368.91k
SYMBOL res 528 512 R90
WINDOW 0 0 56 VBottom 2
WINDOW 3 32 56 VTop 2
SYMATTR InstName R8
SYMATTR Value 6.682k
SYMBOL Opamps\\UniversalOpamp2 640 544 R0
SYMATTR InstName U2
SYMBOL cap -96 512 R90
WINDOW 0 0 32 VBottom 2
WINDOW 3 32 32 VTop 2
SYMATTR InstName C1
SYMATTR Value .1µ
SYMBOL res 2160 528 R90
WINDOW 0 0 56 VBottom 2
WINDOW 3 32 56 VTop 2
SYMATTR InstName R9
SYMATTR Value 15371.5
SYMBOL res 2336 528 R90
WINDOW 0 0 56 VBottom 2
WINDOW 3 32 56 VTop 2
SYMATTR InstName R10
SYMATTR Value 137.88k
SYMBOL res 848 640 R90
WINDOW 0 0 56 VBottom 2
WINDOW 3 32 56 VTop 2
SYMATTR InstName R11
SYMATTR Value 4.802k
SYMBOL res 992 640 R90
WINDOW 0 0 56 VBottom 2
WINDOW 3 32 56 VTop 2
SYMATTR InstName R12
SYMATTR Value 1k
SYMBOL res 688 896 R90
WINDOW 0 0 56 VBottom 2
WINDOW 3 32 56 VTop 2
SYMATTR InstName R13
SYMATTR Value 169.2
SYMBOL res 848 672 R0
SYMATTR InstName R14
SYMATTR Value 215.38k
SYMBOL Opamps\\UniversalOpamp2 1072 672 R0
SYMATTR InstName U3
SYMBOL res 1232 656 R90
WINDOW 0 0 56 VBottom 2
WINDOW 3 32 56 VTop 2
SYMATTR InstName R15
SYMATTR Value 920.4
SYMBOL cap 1152 768 R90
WINDOW 0 0 32 VBottom 2
WINDOW 3 32 32 VTop 2
SYMATTR InstName C2
SYMATTR Value 22n
SYMBOL res 1392 656 R90
WINDOW 0 0 56 VBottom 2
WINDOW 3 32 56 VTop 2
SYMATTR InstName R16
SYMATTR Value 1.368k
SYMBOL res 2160 656 R90
WINDOW 0 0 56 VBottom 2
WINDOW 3 32 56 VTop 2
SYMATTR InstName R17
SYMATTR Value 5.070k
SYMBOL res 2336 656 R90
WINDOW 0 0 56 VBottom 2
WINDOW 3 32 56 VTop 2
SYMATTR InstName R18
SYMATTR Value 148.87k
SYMBOL res 1392 1088 R90
WINDOW 0 0 56 VBottom 2
WINDOW 3 32 56 VTop 2
SYMATTR InstName R19
SYMATTR Value 943.9
SYMBOL res 1232 1088 R90
WINDOW 0 0 56 VBottom 2
WINDOW 3 32 56 VTop 2
SYMATTR InstName R20
SYMATTR Value 103.18k
SYMBOL Opamps\\UniversalOpamp2 1024 1120 M0
SYMATTR InstName U4
SYMBOL res 848 1104 R90
WINDOW 0 0 56 VBottom 2
WINDOW 3 32 56 VTop 2
SYMATTR InstName R21
SYMATTR Value 1.027k
SYMBOL res 1024 1232 R90
WINDOW 0 0 56 VBottom 2
WINDOW 3 32 56 VTop 2
SYMATTR InstName R22
SYMATTR Value 53.97k
SYMBOL res 672 1104 R90
WINDOW 0 0 56 VBottom 2
WINDOW 3 32 56 VTop 2
SYMATTR InstName R23
SYMATTR Value 215.38k
SYMBOL res 1568 768 R90
WINDOW 0 0 56 VBottom 2
WINDOW 3 32 56 VTop 2
SYMATTR InstName R24
SYMATTR Value 1k
SYMBOL Opamps\\UniversalOpamp2 1712 800 R0
SYMATTR InstName U5
SYMBOL res 1856 784 R90
WINDOW 0 0 56 VBottom 2
WINDOW 3 32 56 VTop 2
SYMATTR InstName R25
SYMATTR Value 827.3
SYMBOL res 1088 768 R90
WINDOW 0 0 56 VBottom 2
WINDOW 3 32 56 VTop 2
SYMATTR InstName R26
SYMATTR Value 350
SYMBOL res 1264 768 R90
WINDOW 0 0 56 VBottom 2
WINDOW 3 32 56 VTop 2
SYMATTR InstName R27
SYMATTR Value 350
SYMBOL cap 1792 896 R90
WINDOW 0 0 32 VBottom 2
WINDOW 3 32 32 VTop 2
SYMATTR InstName C3
SYMATTR Value 22n
SYMBOL res 1728 896 R90
WINDOW 0 0 56 VBottom 2
WINDOW 3 32 56 VTop 2
SYMATTR InstName R28
SYMATTR Value 350
SYMBOL res 1968 896 R90
WINDOW 0 0 56 VBottom 2
WINDOW 3 32 56 VTop 2
SYMATTR InstName R29
SYMATTR Value 350
SYMBOL res 2160 784 R90
WINDOW 0 0 56 VBottom 2
WINDOW 3 32 56 VTop 2
SYMATTR InstName R30
SYMATTR Value 13950
SYMBOL res 2336 784 R90
WINDOW 0 0 56 VBottom 2
WINDOW 3 32 56 VTop 2
SYMATTR InstName R31
SYMATTR Value 127.87k
SYMBOL res 1744 1024 R90
WINDOW 0 0 56 VBottom 2
WINDOW 3 32 56 VTop 2
SYMATTR InstName R32
SYMATTR Value 234.16k
SYMBOL res 2512 656 R90
WINDOW 0 0 56 VBottom 2
WINDOW 3 32 56 VTop 2
SYMATTR InstName R33
SYMATTR Value 6.321k
SYMBOL Opamps\\UniversalOpamp2 2592 688 R0
SYMATTR InstName U6
SYMBOL res 2656 832 R0
SYMATTR InstName R34
SYMATTR Value 26.31
SYMBOL res 2656 560 R90
WINDOW 0 0 56 VBottom 2
WINDOW 3 32 56 VTop 2
SYMATTR InstName R35
SYMATTR Value 257.7k
SYMBOL res 2752 672 R90
WINDOW 0 0 56 VBottom 2
WINDOW 3 32 56 VTop 2
SYMATTR InstName R36
SYMATTR Value 147
SYMBOL res 2880 672 R90
WINDOW 0 0 56 VBottom 2
WINDOW 3 32 56 VTop 2
SYMATTR InstName R37
SYMATTR Value 7.180k
SYMBOL res 3024 672 R90
WINDOW 0 0 56 VBottom 2
WINDOW 3 32 56 VTop 2
SYMATTR InstName R38
SYMATTR Value 511.93k
SYMBOL res 3024 592 R90
WINDOW 0 0 56 VBottom 2
WINDOW 3 32 56 VTop 2
SYMATTR InstName R39
SYMATTR Value 251.26k
SYMBOL res 3024 512 R90
WINDOW 0 0 56 VBottom 2
WINDOW 3 32 56 VTop 2
SYMATTR InstName R40
SYMATTR Value 122.94k
SYMBOL res 3024 752 R90
WINDOW 0 0 56 VBottom 2
WINDOW 3 32 56 VTop 2
SYMATTR InstName R41
SYMATTR Value 965.31k
SYMBOL res 3216 672 R90
WINDOW 0 0 56 VBottom 2
WINDOW 3 32 56 VTop 2
SYMATTR InstName R42
SYMATTR Value 4.396k
SYMBOL Opamps\\UniversalOpamp2 3296 704 R0
SYMATTR InstName U7
SYMBOL res 3360 576 R90
WINDOW 0 0 56 VBottom 2
WINDOW 3 32 56 VTop 2
SYMATTR InstName R43
SYMATTR Value 69.091k
SYMBOL res 3456 688 R90
WINDOW 0 0 56 VBottom 2
WINDOW 3 32 56 VTop 2
SYMATTR InstName R44
SYMATTR Value 152.9
SYMBOL res 3680 688 R90
WINDOW 0 0 56 VBottom 2
WINDOW 3 32 56 VTop 2
SYMATTR InstName R45
SYMATTR Value 482.76
SYMBOL res 3696 720 R0
SYMATTR InstName R46
SYMATTR Value 1k
SYMBOL res 3856 688 R90
WINDOW 0 0 56 VBottom 2
WINDOW 3 32 56 VTop 2
SYMATTR InstName R47
SYMATTR Value 10k
SYMBOL cap 3872 752 R0
SYMATTR InstName C4
SYMATTR Value 1n
SYMBOL npn 4000 656 R0
SYMATTR InstName Q1
SYMATTR Value 2SC1815
SYMBOL cap 4048 784 R90
WINDOW 0 0 32 VBottom 2
WINDOW 3 32 32 VTop 2
SYMATTR InstName C5
SYMATTR Value 470p
SYMBOL res 4048 784 R0
SYMATTR InstName R48
SYMATTR Value 1k
SYMBOL cap 4208 784 R90
WINDOW 0 0 32 VBottom 2
WINDOW 3 32 32 VTop 2
SYMATTR InstName C6
SYMATTR Value 10µ
SYMBOL res 2160 400 R90
WINDOW 0 0 56 VBottom 2
WINDOW 3 32 56 VTop 2
SYMATTR InstName R49
SYMATTR Value 297.81k
SYMBOL voltage -208 1616 R0
WINDOW 123 24 124 Left 2
WINDOW 39 0 0 Left 0
SYMATTR Value2 AC 1
SYMATTR InstName Vin1
SYMATTR Value SINE(0 2 1k)
SYMBOL res 160 1584 R90
WINDOW 0 0 56 VBottom 2
WINDOW 3 32 56 VTop 2
SYMATTR InstName R50
SYMATTR Value 6234.6
SYMBOL res 288 1584 R90
WINDOW 0 0 56 VBottom 2
WINDOW 3 32 56 VTop 2
SYMATTR InstName R51
SYMATTR Value 368.91k
SYMBOL res 416 1584 R90
WINDOW 0 0 56 VBottom 2
WINDOW 3 32 56 VTop 2
SYMATTR InstName R52
SYMATTR Value 6.682k
SYMBOL Opamps\\UniversalOpamp2 528 1616 R0
SYMATTR InstName U8
SYMBOL cap -32 1584 R90
WINDOW 0 0 32 VBottom 2
WINDOW 3 32 32 VTop 2
SYMATTR InstName C7
SYMATTR Value .1µ
SYMBOL res 1984 1600 R90
WINDOW 0 0 56 VBottom 2
WINDOW 3 32 56 VTop 2
SYMATTR InstName R53
SYMATTR Value 15371.5
SYMBOL res 2160 1600 R90
WINDOW 0 0 56 VBottom 2
WINDOW 3 32 56 VTop 2
SYMATTR InstName R54
SYMATTR Value 137.88k
SYMBOL res 736 1712 R90
WINDOW 0 0 56 VBottom 2
WINDOW 3 32 56 VTop 2
SYMATTR InstName R55
SYMATTR Value 4.802k
SYMBOL res 880 1712 R90
WINDOW 0 0 56 VBottom 2
WINDOW 3 32 56 VTop 2
SYMATTR InstName R56
SYMATTR Value 3k
SYMBOL res 736 1760 R0
SYMATTR InstName R58
SYMATTR Value 215576
SYMBOL Opamps\\UniversalOpamp2 960 1744 R0
SYMATTR InstName U9
SYMBOL cap 1040 1840 R90
WINDOW 0 0 32 VBottom 2
WINDOW 3 32 32 VTop 2
SYMATTR InstName C8
SYMATTR Value 22n
SYMBOL res 1280 1728 R90
WINDOW 0 0 56 VBottom 2
WINDOW 3 32 56 VTop 2
SYMATTR InstName R60
SYMATTR Value 1.368k
SYMBOL res 1984 1728 R90
WINDOW 0 0 56 VBottom 2
WINDOW 3 32 56 VTop 2
SYMATTR InstName R61
SYMATTR Value 5.070k
SYMBOL res 2160 1728 R90
WINDOW 0 0 56 VBottom 2
WINDOW 3 32 56 VTop 2
SYMATTR InstName R62
SYMATTR Value 148.87k
SYMBOL res 1120 2160 R90
WINDOW 0 0 56 VBottom 2
WINDOW 3 32 56 VTop 2
SYMATTR InstName R64
SYMATTR Value 103.18k
SYMBOL Opamps\\UniversalOpamp2 912 2192 M0
SYMATTR InstName U10
SYMBOL res 912 2304 R90
WINDOW 0 0 56 VBottom 2
WINDOW 3 32 56 VTop 2
SYMATTR InstName R66
SYMATTR Value 53.97k
SYMBOL res 688 2176 R90
WINDOW 0 0 56 VBottom 2
WINDOW 3 32 56 VTop 2
SYMATTR InstName R67
SYMATTR Value 215.38k
SYMBOL res 1456 1840 R90
WINDOW 0 0 56 VBottom 2
WINDOW 3 32 56 VTop 2
SYMATTR InstName R68
SYMATTR Value 3k
SYMBOL Opamps\\UniversalOpamp2 1600 1872 R0
SYMATTR InstName U11
SYMBOL cap 1680 1968 R90
WINDOW 0 0 32 VBottom 2
WINDOW 3 32 32 VTop 2
SYMATTR InstName C9
SYMATTR Value 22n
SYMBOL res 1984 1856 R90
WINDOW 0 0 56 VBottom 2
WINDOW 3 32 56 VTop 2
SYMATTR InstName R74
SYMATTR Value 13950
SYMBOL res 2160 1856 R90
WINDOW 0 0 56 VBottom 2
WINDOW 3 32 56 VTop 2
SYMATTR InstName R75
SYMATTR Value 127.87k
SYMBOL res 1632 2096 R90
WINDOW 0 0 56 VBottom 2
WINDOW 3 32 56 VTop 2
SYMATTR InstName R76
SYMATTR Value 234.16k
SYMBOL res 2336 1728 R90
WINDOW 0 0 56 VBottom 2
WINDOW 3 32 56 VTop 2
SYMATTR InstName R77
SYMATTR Value 6.321k
SYMBOL Opamps\\UniversalOpamp2 2416 1760 R0
SYMATTR InstName U12
SYMBOL res 2480 1632 R90
WINDOW 0 0 56 VBottom 2
WINDOW 3 32 56 VTop 2
SYMATTR InstName R79
SYMATTR Value 257.7k
SYMBOL res 2704 1744 R90
WINDOW 0 0 56 VBottom 2
WINDOW 3 32 56 VTop 2
SYMATTR InstName R81
SYMATTR Value 7.180k
SYMBOL res 2848 1744 R90
WINDOW 0 0 56 VBottom 2
WINDOW 3 32 56 VTop 2
SYMATTR InstName R82
SYMATTR Value 511.93k
SYMBOL res 2848 1664 R90
WINDOW 0 0 56 VBottom 2
WINDOW 3 32 56 VTop 2
SYMATTR InstName R83
SYMATTR Value 251.26k
SYMBOL res 2848 1584 R90
WINDOW 0 0 56 VBottom 2
WINDOW 3 32 56 VTop 2
SYMATTR InstName R84
SYMATTR Value 122.94k
SYMBOL res 2848 1824 R90
WINDOW 0 0 56 VBottom 2
WINDOW 3 32 56 VTop 2
SYMATTR InstName R85
SYMATTR Value 965.31k
SYMBOL res 3040 1744 R90
WINDOW 0 0 56 VBottom 2
WINDOW 3 32 56 VTop 2
SYMATTR InstName R86
SYMATTR Value 4.396k
SYMBOL Opamps\\UniversalOpamp2 3120 1776 R0
SYMATTR InstName U13
SYMBOL res 3184 1648 R90
WINDOW 0 0 56 VBottom 2
WINDOW 3 32 56 VTop 2
SYMATTR InstName R87
SYMATTR Value 69350.26
SYMBOL res 3600 1760 R90
WINDOW 0 0 56 VBottom 2
WINDOW 3 32 56 VTop 2
SYMATTR InstName R91
SYMATTR Value 10k
SYMBOL cap 3616 1824 R0
SYMATTR InstName C10
SYMATTR Value 1n
SYMBOL npn 3744 1728 R0
SYMATTR InstName Q2
SYMATTR Value 2SC1815
SYMBOL res 3792 1856 R0
SYMATTR InstName R92
SYMATTR Value 1k
SYMBOL cap 3952 1856 R90
WINDOW 0 0 32 VBottom 2
WINDOW 3 32 32 VTop 2
SYMATTR InstName C12
SYMATTR Value 10µ
SYMBOL res 1984 1472 R90
WINDOW 0 0 56 VBottom 2
WINDOW 3 32 56 VTop 2
SYMATTR InstName R93
SYMATTR Value 297.81k
SYMBOL res 1968 784 R90
WINDOW 0 0 56 VBottom 2
WINDOW 3 32 56 VTop 2
SYMATTR InstName R57
SYMATTR Value 154.7
SYMBOL res 976 1104 R90
WINDOW 0 0 56 VBottom 2
WINDOW 3 32 56 VTop 2
SYMATTR InstName R59
SYMATTR Value 147
SYMBOL res 144 512 R90
WINDOW 0 0 56 VBottom 2
WINDOW 3 32 56 VTop 2
SYMATTR InstName R63
SYMATTR Value 35
SYMBOL res 848 768 R0
SYMATTR InstName R65
SYMATTR Value 196
SYMBOL res 3488 576 R90
WINDOW 0 0 56 VBottom 2
WINDOW 3 32 56 VTop 2
SYMATTR InstName R69
SYMATTR Value 259.26
SYMBOL voltage 4688 560 R0
WINDOW 123 24 124 Left 2
WINDOW 39 0 0 Left 0
SYMATTR Value2 AC 1
SYMATTR InstName Vin2
SYMATTR Value SINE(0 2 1k)
SYMBOL res 5232 528 R90
WINDOW 0 0 56 VBottom 2
WINDOW 3 32 56 VTop 2
SYMATTR InstName R70
SYMATTR Value 6199.6
SYMBOL res 5360 528 R90
WINDOW 0 0 56 VBottom 2
WINDOW 3 32 56 VTop 2
SYMATTR InstName R71
SYMATTR Value 368.91k
SYMBOL res 5488 528 R90
WINDOW 0 0 56 VBottom 2
WINDOW 3 32 56 VTop 2
SYMATTR InstName R72
SYMATTR Value 6.682k
SYMBOL Opamps\\UniversalOpamp2 5600 560 R0
SYMATTR InstName U14
SYMBOL cap 4864 528 R90
WINDOW 0 0 32 VBottom 2
WINDOW 3 32 32 VTop 2
SYMATTR InstName C11
SYMATTR Value .1µ
SYMBOL res 7120 544 R90
WINDOW 0 0 56 VBottom 2
WINDOW 3 32 56 VTop 2
SYMATTR InstName R73
SYMATTR Value 15371.5
SYMBOL res 7296 544 R90
WINDOW 0 0 56 VBottom 2
WINDOW 3 32 56 VTop 2
SYMATTR InstName R78
SYMATTR Value 137.88k
SYMBOL res 5808 656 R90
WINDOW 0 0 56 VBottom 2
WINDOW 3 32 56 VTop 2
SYMATTR InstName R80
SYMATTR Value 4.802k
SYMBOL res 5952 656 R90
WINDOW 0 0 56 VBottom 2
WINDOW 3 32 56 VTop 2
SYMATTR InstName R88
SYMATTR Value 6k
SYMBOL res 5808 688 R0
SYMATTR InstName R90
SYMATTR Value 215.38k
SYMBOL Opamps\\UniversalOpamp2 6032 688 R0
SYMATTR InstName U15
SYMBOL res 6192 672 R90
WINDOW 0 0 56 VBottom 2
WINDOW 3 32 56 VTop 2
SYMATTR InstName R94
SYMATTR Value 920.4
SYMBOL cap 6112 784 R90
WINDOW 0 0 32 VBottom 2
WINDOW 3 32 32 VTop 2
SYMATTR InstName C13
SYMATTR Value 22n
SYMBOL res 6352 672 R90
WINDOW 0 0 56 VBottom 2
WINDOW 3 32 56 VTop 2
SYMATTR InstName R95
SYMATTR Value 1.368k
SYMBOL res 7120 672 R90
WINDOW 0 0 56 VBottom 2
WINDOW 3 32 56 VTop 2
SYMATTR InstName R96
SYMATTR Value 5.070k
SYMBOL res 7296 672 R90
WINDOW 0 0 56 VBottom 2
WINDOW 3 32 56 VTop 2
SYMATTR InstName R97
SYMATTR Value 148.87k
SYMBOL res 6352 1104 R90
WINDOW 0 0 56 VBottom 2
WINDOW 3 32 56 VTop 2
SYMATTR InstName R98
SYMATTR Value 943.9
SYMBOL res 6192 1104 R90
WINDOW 0 0 56 VBottom 2
WINDOW 3 32 56 VTop 2
SYMATTR InstName R99
SYMATTR Value 103.18k
SYMBOL Opamps\\UniversalOpamp2 5984 1136 M0
SYMATTR InstName U16
SYMBOL res 5808 1120 R90
WINDOW 0 0 56 VBottom 2
WINDOW 3 32 56 VTop 2
SYMATTR InstName R100
SYMATTR Value 1.027k
SYMBOL res 5984 1248 R90
WINDOW 0 0 56 VBottom 2
WINDOW 3 32 56 VTop 2
SYMATTR InstName R101
SYMATTR Value 53.97k
SYMBOL res 5632 1120 R90
WINDOW 0 0 56 VBottom 2
WINDOW 3 32 56 VTop 2
SYMATTR InstName R102
SYMATTR Value 215.38k
SYMBOL res 6528 784 R90
WINDOW 0 0 56 VBottom 2
WINDOW 3 32 56 VTop 2
SYMATTR InstName R103
SYMATTR Value 6k
SYMBOL Opamps\\UniversalOpamp2 6672 816 R0
SYMATTR InstName U17
SYMBOL res 6816 800 R90
WINDOW 0 0 56 VBottom 2
WINDOW 3 32 56 VTop 2
SYMATTR InstName R104
SYMATTR Value 827.3
SYMBOL cap 6752 912 R90
WINDOW 0 0 32 VBottom 2
WINDOW 3 32 32 VTop 2
SYMATTR InstName C14
SYMATTR Value 22n
SYMBOL res 7120 800 R90
WINDOW 0 0 56 VBottom 2
WINDOW 3 32 56 VTop 2
SYMATTR InstName R109
SYMATTR Value 13950
SYMBOL res 7296 800 R90
WINDOW 0 0 56 VBottom 2
WINDOW 3 32 56 VTop 2
SYMATTR InstName R110
SYMATTR Value 127.87k
SYMBOL res 6704 1040 R90
WINDOW 0 0 56 VBottom 2
WINDOW 3 32 56 VTop 2
SYMATTR InstName R111
SYMATTR Value 234.16k
SYMBOL res 7472 672 R90
WINDOW 0 0 56 VBottom 2
WINDOW 3 32 56 VTop 2
SYMATTR InstName R112
SYMATTR Value 6.321k
SYMBOL Opamps\\UniversalOpamp2 7552 704 R0
SYMATTR InstName U18
SYMBOL res 7616 576 R90
WINDOW 0 0 56 VBottom 2
WINDOW 3 32 56 VTop 2
SYMATTR InstName R114
SYMATTR Value 257.7k
SYMBOL res 7840 688 R90
WINDOW 0 0 56 VBottom 2
WINDOW 3 32 56 VTop 2
SYMATTR InstName R116
SYMATTR Value 7.180k
SYMBOL res 7984 688 R90
WINDOW 0 0 56 VBottom 2
WINDOW 3 32 56 VTop 2
SYMATTR InstName R117
SYMATTR Value 511.93k
SYMBOL res 7984 608 R90
WINDOW 0 0 56 VBottom 2
WINDOW 3 32 56 VTop 2
SYMATTR InstName R118
SYMATTR Value 251.26k
SYMBOL res 7984 528 R90
WINDOW 0 0 56 VBottom 2
WINDOW 3 32 56 VTop 2
SYMATTR InstName R119
SYMATTR Value 122.94k
SYMBOL res 7984 768 R90
WINDOW 0 0 56 VBottom 2
WINDOW 3 32 56 VTop 2
SYMATTR InstName R120
SYMATTR Value 965.31k
SYMBOL res 8176 688 R90
WINDOW 0 0 56 VBottom 2
WINDOW 3 32 56 VTop 2
SYMATTR InstName R121
SYMATTR Value 4.396k
SYMBOL Opamps\\UniversalOpamp2 8256 720 R0
SYMATTR InstName U19
SYMBOL res 8320 592 R90
WINDOW 0 0 56 VBottom 2
WINDOW 3 32 56 VTop 2
SYMATTR InstName R122
SYMATTR Value 69.091k
SYMBOL res 8640 704 R90
WINDOW 0 0 56 VBottom 2
WINDOW 3 32 56 VTop 2
SYMATTR InstName R124
SYMATTR Value 482.76
SYMBOL res 8656 736 R0
SYMATTR InstName R125
SYMATTR Value 1k
SYMBOL res 8816 704 R90
WINDOW 0 0 56 VBottom 2
WINDOW 3 32 56 VTop 2
SYMATTR InstName R126
SYMATTR Value 10k
SYMBOL cap 8832 768 R0
SYMATTR InstName C15
SYMATTR Value 1n
SYMBOL npn 8960 672 R0
SYMATTR InstName Q3
SYMATTR Value 2SC1815
SYMBOL cap 9008 800 R90
WINDOW 0 0 32 VBottom 2
WINDOW 3 32 32 VTop 2
SYMATTR InstName C16
SYMATTR Value 470p
SYMBOL res 9008 800 R0
SYMATTR InstName R127
SYMATTR Value 1k
SYMBOL cap 9168 800 R90
WINDOW 0 0 32 VBottom 2
WINDOW 3 32 32 VTop 2
SYMATTR InstName C17
SYMATTR Value 10µ
SYMBOL res 7120 416 R90
WINDOW 0 0 56 VBottom 2
WINDOW 3 32 56 VTop 2
SYMATTR InstName R128
SYMATTR Value 297.81k
SYMBOL res 8448 592 R90
WINDOW 0 0 56 VBottom 2
WINDOW 3 32 56 VTop 2
SYMATTR InstName R133
SYMATTR Value 259.26
SYMBOL voltage 4512 1680 R0
WINDOW 123 24 124 Left 2
WINDOW 39 0 0 Left 0
SYMATTR Value2 AC 1
SYMATTR InstName Vin3
SYMATTR Value SINE(0 2 2.1k)
SYMBOL res 5184 1648 R90
WINDOW 0 0 56 VBottom 2
WINDOW 3 32 56 VTop 2
SYMATTR InstName R105
SYMATTR Value 368.91k
SYMBOL Opamps\\UniversalOpamp2 5424 1680 R0
SYMATTR InstName U20
SYMBOL cap 4688 1648 R90
WINDOW 0 0 32 VBottom 2
WINDOW 3 32 32 VTop 2
SYMATTR InstName C18
SYMATTR Value .1µ
SYMBOL res 5776 1776 R90
WINDOW 0 0 56 VBottom 2
WINDOW 3 32 56 VTop 2
SYMATTR InstName R115
SYMATTR Value 1k
SYMBOL res 5632 1808 R0
SYMATTR InstName R123
SYMATTR Value 215.38k
SYMBOL Opamps\\UniversalOpamp2 5856 1808 R0
SYMATTR InstName U21
SYMBOL cap 5936 1904 R90
WINDOW 0 0 32 VBottom 2
WINDOW 3 32 32 VTop 2
SYMATTR InstName C19
SYMATTR Value 22n
SYMBOL res 6016 2224 R90
WINDOW 0 0 56 VBottom 2
WINDOW 3 32 56 VTop 2
SYMATTR InstName R135
SYMATTR Value 103.18k